/*--------------------------------*- C++ -*----------------------------------*\
  =========                 |
  \\      /  F ield         | OpenFOAM: The Open Source CFD Toolbox
   \\    /   O peration     | Website:  https://openfoam.org
    \\  /    A nd           | Version:  9
     \\/     M anipulation  |
\*---------------------------------------------------------------------------*/
FoamFile
{
    format      ascii;
    class       polyBoundaryMesh;
    location    "constant/polyMesh";
    object      boundary;
}
// * * * * * * * * * * * * * * * * * * * * * * * * * * * * * * * * * * * * * //

5
(
    upper
    {
        type            cyclic;
        inGroups        List<word> 1(cyclic);
        nFaces          4;
        startFace       24;
        matchTolerance  0.0001;
        neighbourPatch  down;
        transformType   translational;
        separation      (0 0.9999999999999998 0);
    }
    down
    {
        type            cyclic;
        inGroups        List<word> 1(cyclic);
        nFaces          4;
        startFace       28;
        matchTolerance  0.0001;
        neighbourPatch  upper;
        transformType   translational;
        separation      (0 -0.9999999999999998 0);
    }
    left
    {
        type            cyclic;
        inGroups        List<word> 1(cyclic);
        nFaces          4;
        startFace       32;
        matchTolerance  0.0001;
        neighbourPatch  right;
        transformType   translational;
        separation      (-0.9999999999999998 0 0);
    }
    right
    {
        type            cyclic;
        inGroups        List<word> 1(cyclic);
        nFaces          4;
        startFace       36;
        matchTolerance  0.0001;
        neighbourPatch  left;
        transformType   translational;
        separation      (0.9999999999999998 0 0);
    }
    frontAndBack
    {
        type            empty;
        inGroups        List<word> 1(empty);
        nFaces          32;
        startFace       40;
    }
)

// ************************************************************************* //
