/*--------------------------------*- C++ -*----------------------------------*\
  =========                 |
  \\      /  F ield         | OpenFOAM: The Open Source CFD Toolbox
   \\    /   O peration     | Website:  https://openfoam.org
    \\  /    A nd           | Version:  9
     \\/     M anipulation  |
\*---------------------------------------------------------------------------*/
FoamFile
{
    format      ascii;
    class       polyBoundaryMesh;
    location    "constant/polyMesh";
    object      boundary;
}
// * * * * * * * * * * * * * * * * * * * * * * * * * * * * * * * * * * * * * //

4
(
    frontAndBack
    {
        type            empty;
        inGroups        List<word> 1(empty);
        nFaces          200818;
        startFace       150133;
    }
    outlet
    {
        type            patch;
        physicalType    patch;
        nFaces          140;
        startFace       350951;
    }
    inlet
    {
        type            patch;
        physicalType    patch;
        nFaces          481;
        startFace       351091;
    }
    wall
    {
        type            wall;
        inGroups        List<word> 1(wall);
        nFaces          340;
        startFace       351572;
    }
)

// ************************************************************************* //
