/*--------------------------------*- C++ -*----------------------------------*\
  =========                 |
  \\      /  F ield         | OpenFOAM: The Open Source CFD Toolbox
   \\    /   O peration     | Website:  https://openfoam.org
    \\  /    A nd           | Version:  9
     \\/     M anipulation  |
\*---------------------------------------------------------------------------*/
FoamFile
{
    format      ascii;
    class       volScalarField;
    object      T;
}
// * * * * * * * * * * * * * * * * * * * * * * * * * * * * * * * * * * * * * //

dimensions      [0 0 0 0 0 0 0];

internalField   #codeStream
{
    codeInclude
    #{
        #include "fvCFD.H"
    #};

    codeOptions
    #{
        -I$(LIB_SRC)/finiteVolume/lnInclude \
        -I$(LIB_SRC)/meshTools/lnInclude
    #};

    codeLibs
    #{
        -lmeshTools \
        -lfiniteVolume
    #};

    code
    #{
        const IOdictionary& d = static_cast<const IOdictionary&>(dict);
        const fvMesh& mesh = refCast<const fvMesh>(d.db());

        scalarField T_Init(mesh.nCells());
        forAll(T_Init, i)
        {
            const scalar x = mesh.C()[i][0];
            const scalar y = mesh.C()[i][1];
            if (x < 0.5)
                T_Init[i] = 0.8;
            else
                T_Init[i] = 1.2;

            // T_Init[i] = 1.0 + 0.2*sin(2*(x+y)*constant::mathematical::pi);
        }
        writeEntry(os, T_Init);
    #};
};

boundaryField
{
    upper
    {
        type            cyclic;
    }

    down
    {
        type            cyclic;
    }

    left
    {
        type            cyclic;
    }

    right
    {
        type            cyclic;
    }

    frontAndBack
    {
        type            empty;
    }
}

// ************************************************************************* //
